Version 4
SHEET 1 2272 1268
WIRE 16 -656 -416 -656
WIRE 144 -656 16 -656
WIRE 144 -592 144 -656
WIRE -64 -512 -176 -512
WIRE 48 -512 16 -512
WIRE 96 -512 48 -512
WIRE -176 -480 -176 -512
WIRE -416 -432 -416 -656
WIRE -176 -368 -176 -400
WIRE 96 -368 -176 -368
WIRE 144 -368 144 -496
WIRE 144 -368 96 -368
WIRE 144 -320 144 -368
WIRE 304 -320 144 -320
WIRE 592 -320 384 -320
WIRE 688 -320 592 -320
WIRE 752 -320 688 -320
WIRE 976 -320 752 -320
WIRE 976 -272 976 -320
WIRE 592 -256 592 -320
WIRE 752 -256 752 -320
WIRE 144 -240 144 -320
WIRE 592 -128 592 -192
WIRE 672 -128 592 -128
WIRE 752 -128 752 -176
WIRE 752 -128 672 -128
WIRE 976 -128 976 -192
WIRE 976 -128 752 -128
WIRE -416 -96 -416 -352
WIRE 144 -96 144 -176
WIRE 672 -96 672 -128
WIRE -64 -80 -176 -80
WIRE -176 -48 -176 -80
WIRE -176 48 -176 32
WIRE -96 96 -304 96
WIRE -64 96 -64 -80
WIRE 80 112 -32 112
WIRE 128 112 80 112
WIRE -96 128 -176 128
WIRE -304 176 -304 96
WIRE -176 176 -176 128
WIRE -64 176 -64 128
WIRE -304 320 -304 256
WIRE -176 320 -176 256
FLAG -416 -96 0
FLAG 48 -512 gate
FLAG 672 -96 0
FLAG 688 -320 out
FLAG 144 -96 0
FLAG 16 -656 dc
FLAG -304 320 0
FLAG -176 320 0
FLAG 96 -368 source
FLAG -64 176 0
FLAG -176 48 0
FLAG 80 112 pwm
SYMBOL voltage -416 -448 R0
WINDOW 123 0 0 Left 2
WINDOW 39 0 0 Left 2
SYMATTR InstName V1
SYMATTR Value 10
SYMBOL nmos 96 -592 R0
SYMATTR InstName M1
SYMATTR Value IRFZ48N
SYMBOL res -80 -496 R270
WINDOW 0 32 56 VTop 2
WINDOW 3 0 56 VBottom 2
SYMATTR InstName R2
SYMATTR Value 10
SYMBOL schottky 160 -176 R180
WINDOW 0 88 53 Left 2
WINDOW 3 55 22 Left 2
SYMATTR InstName D1
SYMATTR Value MBR735
SYMATTR Description Diode
SYMATTR Type diode
SYMBOL cap 576 -256 R0
WINDOW 0 -57 7 Left 2
WINDOW 3 -60 42 Left 2
SYMATTR InstName C1
SYMATTR Value 10µ
SYMATTR SpiceLine Rser=0.15
SYMBOL res 736 -272 R0
SYMATTR InstName R8
SYMATTR Value 1
SYMBOL ind2 288 -304 R270
WINDOW 0 32 56 VTop 2
WINDOW 3 5 56 VBottom 2
SYMATTR InstName L1
SYMATTR Value 50µ
SYMATTR Type ind
SYMATTR SpiceLine Rser=0.05
SYMBOL voltage -176 160 M0
WINDOW 123 0 0 Left 0
WINDOW 39 0 0 Left 0
WINDOW 3 -391 85 Left 2
WINDOW 0 -96 54 Left 2
SYMATTR Value PULSE(0 10 0 4.8u 0.2u 0 5u)
SYMATTR InstName Vsw
SYMBOL voltage -304 160 M0
WINDOW 123 0 0 Left 0
WINDOW 39 0 0 Left 0
WINDOW 0 38 41 Left 2
WINDOW 3 48 70 Left 2
SYMATTR InstName Vduty
SYMATTR Value 5.4
SYMBOL MyComparator -64 112 R0
WINDOW 0 13 26 Left 2
SYMATTR InstName U1
SYMBOL voltage -176 -64 R0
WINDOW 123 0 0 Left 0
WINDOW 39 0 0 Left 0
SYMATTR InstName V2
SYMATTR Value 15
SYMBOL Misc\\Epoly -176 -496 R0
WINDOW 3 12 97 Left 2
SYMATTR Value value={V(pwm)}
SYMATTR InstName Edriver
SYMBOL current 976 -192 R180
WINDOW 0 24 80 Left 2
WINDOW 3 -327 -8 Left 2
WINDOW 123 0 0 Left 0
WINDOW 39 0 0 Left 0
SYMATTR InstName I1
SYMATTR Value SINE(0 {Iac} {Freq} {t0})
TEXT 232 -424 Left 2 !.tran 0 {t0 + 3/Freq} {t0 + 1/Freq} 0.1u uic
TEXT 464 -184 Left 2 ;ESR=0.15
TEXT 296 -272 Left 2 ;ESR=0.05
TEXT -128 272 Left 2 ;sawtooth
TEXT 528 -648 Left 2 !.param t0 1m
TEXT 528 -608 Left 2 !.param Freq 10.7k
TEXT 528 -560 Left 2 !.param Iac 1
TEXT 232 -472 Left 2 !.options reltol 1e-3
TEXT 1016 -680 Left 2 !.measure Aavg              avg       V(out)                                                                ; average output voltage\n.measure Bavg              avg       I(I1)                                                                     ; average input signal\n.measure Are                  avg       2*(V(out)-Aavg)*cos(360*Freq*time)      ; A real part\n.measure Aim                 avg       2*(V(out)-Aavg)*sin(360*Freq*time)        ; A imag part\n.measure Bre                  avg       2*(I(I1)-Bavg)*cos(360*Freq*time)          ; B real part\n.measure Bim                 avg        2*(I(I1)-Bavg)*sin(360*Freq*time)            ; B imag part\n.measure Amag             param   hypot(Are,Aim)                                              ; A magnitude\n.measure Bmag             param   hypot(Bre,Bim)                                              ; B magnitude\n.measure Aphi                param   atan2(Aim, Are)                                             ; A phase\n.measure Bphi                param   atan2(Bim, Bre)                                             ; B phase\n.measure Zo_mag       param    Amag/Bmag                                                  ; Output impedance magnitude\n.measure Zo_phi          param    Aphi - Bphi                                                      ; Output impedance phase
